/*--------------------------------*- C++ -*----------------------------------*\
| =========                 |                                                 |
| \\      /  F ield         | OpenFOAM: The Open Source CFD Toolbox           |
|  \\    /   O peration     | Version:  1.5                                   |
|   \\  /    A nd           | Web:      http://www.OpenFOAM.org               |
|    \\/     M anipulation  |                                                 |
\*---------------------------------------------------------------------------*/
FoamFile
{
    version     2.0;
    format      ascii;
    class       dictionary;
    object      blockMeshDict;
}
// * * * * * * * * * * * * * * * * * * * * * * * * * * * * * * * * * * * * * //

convertToMeters 1;

vertices        
(
    (0 0 0)
    (140 0 0)
    (140 1 0)
    (0 1 0)
    (0 0 1)
    (140 0 1)
    (140 1 1)
    (0 1 1)
);

blocks          
(
    hex (0 1 2 3 4 5 6 7) (1400 1 1) simpleGrading (1 1 1)
);

edges           
(
);

patches         
(
    patch front
    (
        (0 4 7 3)
    )
    patch back
    (
        (1 5 6 2)
    )
    empty right
    (
        (0 1 5 4)
    )
    empty left
    (
        (3 2 6 7)
    )
    empty TopAndBot 
    (
        (0 3 2 1)
        (4 5 6 7)
    )
);

mergePatchPairs 
(
);

// ************************************************************************* //
